16
Energy =
C     1.3863396    0.0000000    0.0000000 
C     0.0000000    0.0000000    0.0000000 
C    -0.7129098    1.1889797    0.0000000 
C    -0.0356400    2.3843593    0.0001300 
C     1.3655296    2.4109393    0.0008300 
C     2.0632394    1.1955797    0.0001300 
H     1.9189695   -0.9386997    0.0008500 
H    -1.7918895    1.1630497    0.0008400 
H    -0.5866198    3.3157291   -0.0021100 
H     3.1453891    1.2019997   -0.0020900 
N    -0.7139098   -1.2604296    0.0017400 
O    -1.9317595   -1.2327197    0.0025500 
O    -0.0638600   -2.2906594    0.0025200 
N     2.0378794    3.5980390   -0.0331600 
H     1.5403296    4.4457988    0.1747600 
H     3.0208192    3.6072590    0.1747400 
