16
Energy =
C     1.3892396    0.0000000    0.0000000 
C     0.0000000    0.0000000    0.0000000 
C    -0.7111598    1.1934197    0.0000000 
C    -0.0340700    2.3863693    0.0001400 
C     1.3704796    2.4120693    0.0009300 
C     2.0674294    1.1923397    0.0001400 
H     1.9242995   -0.9372097    0.0009700 
H    -1.7901895    1.1732997    0.0009600 
H    -0.5832098    3.3185291   -0.0007700 
H     3.1493191    1.1977597   -0.0007700 
N    -0.7111598   -1.2516296    0.0017600 
O    -1.9324395   -1.2296997    0.0025400 
O    -0.0671400   -2.2895394    0.0024800 
N     2.0402394    3.5907790   -0.0246800 
H     1.5463596    4.4515088    0.1325300 
H     3.0324591    3.6071490    0.1325200 
