16
Energy =
C     1.3902296    0.0000000    0.0000000 
C     0.0000000    0.0000000    0.0000000 
C    -0.7104098    1.1950097    0.0000000 
C    -0.0333500    2.3870893    0.0003000 
C     1.3723496    2.4123793    0.0013200 
C     2.0689294    1.1911297    0.0003000 
H     1.9257295   -0.9369497    0.0007800 
H    -1.7894395    1.1765397    0.0007800 
H    -0.5817698    3.3195491   -0.0003500 
H     3.1507191    1.1962197   -0.0003100 
N    -0.7103298   -1.2486596    0.0015900 
O    -1.9327495   -1.2282897    0.0022800 
O    -0.0681600   -2.2889994    0.0022800 
N     2.0412294    3.5881390   -0.0196100 
H     1.5487996    4.4538387    0.1123900 
H     3.0369991    3.6072390    0.1124000 
